
[general]
network= cloudsim.net1 
sim-time-limit = 5s

**.pc*.messagesGenerateLowerBound = 150.0e-3  //10ms     
**.pc*.messagesGenerateUpperBound = 300.0e-3   //150ms
**.Router*.queueSize  = 1 				// set queue size to 5 for example
**.Router*.processingDelay = 20.0e-3  // 10 ms delay for example
**.Server.processingDelay = 10.0e-3
**.Server.queueSize = 100 
**.Server.wattsConsumePerSecond = 40 
